<?xml version="1.0" encoding="UTF-8"?>

<!-- generated on 2025-11-29T07:07:01.224555+08:00 by Eclipse SUMO libsumo 1.25.0
This data file and the accompanying materials
are made available under the terms of the Eclipse Public License v2.0
which accompanies this distribution, and is available at
http://www.eclipse.org/legal/epl-v20.html
This file may also be made available under the following Secondary
Licenses when the conditions for such availability set forth in the Eclipse
Public License 2.0 are satisfied: GNU General Public License, version 2
or later which is available at
https://www.gnu.org/licenses/old-licenses/gpl-2.0-standalone.html
SPDX-License-Identifier: EPL-2.0 OR GPL-2.0-or-later
<libsumoConfiguration xmlns:xsi="http://www.w3.org/2001/XMLSchema-instance" xsi:noNamespaceSchemaLocation="http://sumo.dlr.de/xsd/libsumoConfiguration.xsd">

    <input>
        <net-file value="/home/erzhu419/mine_code/sumo-rl/SUMO_ruiguang/online_control/../b_network/5g_changsha_bus_network_with_signal_d.net.xml"/>
        <route-files value="/home/erzhu419/mine_code/sumo-rl/SUMO_ruiguang/online_control/../c_social_vehicle_rou/5_design_social_vehicle.rou.xml,/home/erzhu419/mine_code/sumo-rl/SUMO_ruiguang/online_control/../c_social_vehicle_rou/5_design_social_vehicle_add_addline_lesscar.rou.xml,/home/erzhu419/mine_code/sumo-rl/SUMO_ruiguang/online_control/ ../d_bus_rou/2_bus_timetable.rou.xml,/home/erzhu419/mine_code/sumo-rl/SUMO_ruiguang/online_control/ ../e_passenger_rou/3_modified_period_workday_passenger_VC_0805.rou.xml,/home/erzhu419/mine_code/sumo-rl/SUMO_ruiguang/online_control/ ../e_passenger_rou/3_modified_transfer_passenger_0805.rou.xml"/>
        <additional-files value="/home/erzhu419/mine_code/sumo-rl/SUMO_ruiguang/online_control/../b_network/3_bus_station.add.xml"/>
    </input>

    <output>
        <write-license value="true"/>
        <fcd-output value="/home/erzhu419/mine_code/sumo-rl/SUMO_ruiguang/online_control/output_file/PreSimFcd.xml"/>
        <fcd-output.attributes value="x, y, z, type, speed, pos, lane, edge, slope, signals, distance, odometer"/>
        <tripinfo-output.write-unfinished value="t"/>
        <statistic-output value="/home/erzhu419/mine_code/sumo-rl/SUMO_ruiguang/online_control/output_file/statistic_output.xml"/>
    </output>

    <report>
        <no-warnings value="true"/>
        <log value="sumo_log.txt"/>
        <duration-log.statistics value="t"/>
    </report>

    <fcd_device>
        <device.fcd.explicit value="80000, 7S_0, 7S_1, 7S_2, 7S_3, 7S_4, 7S_5, 7S_6, 7S_7, 7S_8, 7S_9, 7S_10, 7S_11, 7S_12, 7S_13, 7S_14, 7S_15, 7S_16, 7S_17, 7S_18, 7S_19, 7S_20, 7S_21, 7S_22, 7S_23, 7S_24, 7S_25, 7S_26, 7S_27, 7S_28, 7S_29, 7S_30, 7S_31, 7S_32, 7S_33, 7S_34, 7S_35, 7S_36, 7S_37, 7S_38, 7S_39, 7S_40, 7S_41, 7S_42, 7S_43, 7S_44, 7S_45, 7S_46, 7S_47, 7S_48, 7S_49, 7S_50, 7S_51, 7S_52, 7X_0, 7X_1, 7X_2, 7X_3, 7X_4, 7X_5, 7X_6, 7X_7, 7X_8, 7X_9, 7X_10, 7X_11, 7X_12, 7X_13, 7X_14, 7X_15, 7X_16, 7X_17, 7X_18, 7X_19, 7X_20, 7X_21, 7X_22, 7X_23, 7X_24, 7X_25, 7X_26, 7X_27, 7X_28, 7X_29, 7X_30, 7X_31, 7X_32, 7X_33, 7X_34, 7X_35, 7X_36, 7X_37, 7X_38, 7X_39, 7X_40, 7X_41, 7X_42, 7X_43, 7X_44, 7X_45, 7X_46, 7X_47, 7X_48, 7X_49, 7X_50, 102S_0, 102S_1, 102S_2, 102S_3, 102S_4, 102S_5, 102S_6, 102S_7, 102S_8, 102S_9, 102S_10, 102S_11, 102S_12, 102S_13, 102S_14, 102S_15, 102S_16, 102S_17, 102S_18, 102S_19, 102S_20, 102S_21, 102S_22, 102S_23, 102S_24, 102S_25, 102S_26, 102S_27, 102S_28, 102S_29, 102S_30, 102S_31, 102S_32, 102S_33, 102S_34, 102S_35, 102X_0, 102X_1, 102X_2, 102X_3, 102X_4, 102X_5, 102X_6, 102X_7, 102X_8, 102X_9, 102X_10, 102X_11, 102X_12, 102X_13, 102X_14, 102X_15, 102X_16, 102X_17, 102X_18, 102X_19, 102X_20, 102X_21, 102X_22, 102X_23, 102X_24, 102X_25, 102X_26, 102X_27, 102X_28, 102X_29, 102X_30, 102X_31, 122S_0, 122S_1, 122S_2, 122S_3, 122S_4, 122S_5, 122S_6, 122S_7, 122S_8, 122S_9, 122S_10, 122S_11, 122S_12, 122S_13, 122S_14, 122S_15, 122S_16, 122S_17, 122S_18, 122S_19, 122S_20, 122S_21, 122S_22, 122S_23, 122S_24, 122S_25, 122S_26, 122S_27, 122S_28, 122S_29, 122S_30, 122S_31, 122S_32, 122S_33, 122X_0, 122X_1, 122X_2, 122X_3, 122X_4, 122X_5, 122X_6, 122X_7, 122X_8, 122X_9, 122X_10, 122X_11, 122X_12, 122X_13, 122X_14, 122X_15, 122X_16, 122X_17, 122X_18, 122X_19, 122X_20, 122X_21, 122X_22, 122X_23, 122X_24, 122X_25, 122X_26, 122X_27, 122X_28, 122X_29, 122X_30, 122X_31, 122X_32, 311S_0, 311S_1, 311S_2, 311S_3, 311S_4, 311S_5, 311S_6, 311S_7, 311S_8, 311S_9, 311S_10, 311S_11, 311S_12, 311S_13, 311S_14, 311S_15, 311S_16, 311S_17, 311S_18, 311S_19, 311S_20, 311S_21, 311S_22, 311S_23, 311S_24, 311S_25, 311S_26, 311S_27, 311S_28, 311X_0, 311X_1, 311X_2, 311X_3, 311X_4, 311X_5, 311X_6, 311X_7, 311X_8, 311X_9, 311X_10, 311X_11, 311X_12, 311X_13, 311X_14, 311X_15, 311X_16, 311X_17, 311X_18, 311X_19, 311X_20, 311X_21, 311X_22, 311X_23, 311X_24, 311X_25, 311X_26, 406S_0, 406S_1, 406S_2, 406S_3, 406S_4, 406S_5, 406S_6, 406S_7, 406S_8, 406S_9, 406S_10, 406S_11, 406S_12, 406S_13, 406S_14, 406S_15, 406S_16, 406S_17, 406S_18, 406S_19, 406S_20, 406S_21, 406S_22, 406S_23, 406S_24, 406S_25, 406S_26, 406S_27, 406S_28, 406X_0, 406X_1, 406X_2, 406X_3, 406X_4, 406X_5, 406X_6, 406X_7, 406X_8, 406X_9, 406X_10, 406X_11, 406X_12, 406X_13, 406X_14, 406X_15, 406X_16, 406X_17, 406X_18, 406X_19, 406X_20, 406X_21, 406X_22, 406X_23, 406X_24, 406X_25, 406X_26, 406X_27, 406X_28, 705S_0, 705S_1, 705S_2, 705S_3, 705S_4, 705S_5, 705S_6, 705S_7, 705S_8, 705S_9, 705S_10, 705S_11, 705S_12, 705S_13, 705S_14, 705S_15, 705S_16, 705S_17, 705S_18, 705S_19, 705S_20, 705S_21, 705S_22, 705S_23, 705S_24, 705S_25, 705X_0, 705X_1, 705X_2, 705X_3, 705X_4, 705X_5, 705X_6, 705X_7, 705X_8, 705X_9, 705X_10, 705X_11, 705X_12, 705X_13, 705X_14, 705X_15, 705X_16, 705X_17, 705X_18, 705X_19, 705X_20, 705X_21"/>
        <person-device.fcd.explicit value="workday6_6477.0"/>
    </fcd_device>

</libsumoConfiguration>
-->

<snapshot type="micro" version="1.25.0" time="0.00" xmlns:xsi="http://www.w3.org/2001/XMLSchema-instance" xsi:noNamespaceSchemaLocation="http://sumo.dlr.de/xsd/state_file.xsd">
    <route id="!234" state="0" edges="E_J503_J504 E_J504_J505 E_J504_J505.100 E_J504_J505.130 E_J504_J505.500 E_J504_J505.530 E_J505_J528 E_J505_J528.100 E_J505_J528.160 E_J528_J542 E_J542_J561 E_J561_J573 E_J573_J576 E_J576_J573"/>
    <route id="!7S_1" state="0" edges="E_J434_J427 E_J434_J427.80 E_J434_J427.110 E_J427_J406 E_J406_J409 E_J406_J409.400 E_J406_J409.430 E_J409_J423 E_J409_J423.220 E_J409_J423.280 E_J409_J423.600 E_J409_J423.660 E_J423_J417 E_J423_J417.230 E_J423_J417.290 E_J417_J367 E_J417_J367.100 E_J417_J367.160 E_J417_J367.470 E_J417_J367.500 E_J417_J367.1000 E_J417_J367.1030 E_J417_J367.1450 E_J417_J367.1480 E_J367_J354 E_J367_J354.310 E_J367_J354.340 E_J354_J328 E_J354_J328.170 E_J354_J328.230 E_J354_J328.520 E_J354_J328.580 E_J354_J328.580.250 E_J328_J313 E_J328_J313.150 E_J328_J313.210 E_J313_J282 E_J313_J282.200 E_J313_J282.260 E_J313_J282.900 E_J313_J282.930 E_J282_J279 E_J279_J285 E_J279_J285.450 E_J279_J285.510 E_J285_J286 E_J286_J281 E_J286_J281.240 E_J286_J281.300 E_J286_J281.580 E_J286_J281.640 E_J281_J278 E_J281_J278.270 E_J281_J278.300 E_J278_J289 E_J289_J294 E_J294_J296 E_J294_J296.50 E_J294_J296.80 E_J296_J299 E_J296_J299.20 E_J296_J299.50 E_J299_J302 E_J299_J302.150 E_J299_J302.180 E_J302_J303 E_J303_J297 E_J303_J297.260 E_J303_J297.290 E_J303_J297.290.136 E_J297_J321 E_J297_J321.100 E_J297_J321.130 E_J321_J362 E_J321_J362.160 E_J321_J362.220 E_J362_J374 E_J374_J382 E_J382_J393 E_J393_J395 E_J393_J395.150 E_J393_J395.180"/>
    <route id="!7S_2" state="0" edges="E_J434_J427 E_J434_J427.80 E_J434_J427.110 E_J427_J406 E_J406_J409 E_J406_J409.400 E_J406_J409.430 E_J409_J423 E_J409_J423.220 E_J409_J423.280 E_J409_J423.600 E_J409_J423.660 E_J423_J417 E_J423_J417.230 E_J423_J417.290 E_J417_J367 E_J417_J367.100 E_J417_J367.160 E_J417_J367.470 E_J417_J367.500 E_J417_J367.1000 E_J417_J367.1030 E_J417_J367.1450 E_J417_J367.1480 E_J367_J354 E_J367_J354.310 E_J367_J354.340 E_J354_J328 E_J354_J328.170 E_J354_J328.230 E_J354_J328.520 E_J354_J328.580 E_J354_J328.580.250 E_J328_J313 E_J328_J313.150 E_J328_J313.210 E_J313_J282 E_J313_J282.200 E_J313_J282.260 E_J313_J282.900 E_J313_J282.930 E_J282_J279 E_J279_J285 E_J279_J285.450 E_J279_J285.510 E_J285_J286 E_J286_J281 E_J286_J281.240 E_J286_J281.300 E_J286_J281.580 E_J286_J281.640 E_J281_J278 E_J281_J278.270 E_J281_J278.300 E_J278_J289 E_J289_J294 E_J294_J296 E_J294_J296.50 E_J294_J296.80 E_J296_J299 E_J296_J299.20 E_J296_J299.50 E_J299_J302 E_J299_J302.150 E_J299_J302.180 E_J302_J303 E_J303_J297 E_J303_J297.260 E_J303_J297.290 E_J303_J297.290.136 E_J297_J321 E_J297_J321.100 E_J297_J321.130 E_J321_J362 E_J321_J362.160 E_J321_J362.220 E_J362_J374 E_J374_J382 E_J382_J393 E_J393_J395 E_J393_J395.150 E_J393_J395.180"/>
    <route id="!7X_1" state="0" edges="E_J393_J395 E_J393_J395.150 E_J393_J395.180 E_J395_J396 E_J395_J396.19 E_J396_J381 E_J381_J363 E_J363_J347 E_J347_J323 E_J323_J298 E_J323_J298.150 E_J323_J298.180 E_J298_J297 E_J298_J297.270 E_J298_J297.300 E_J297_J303 E_J297_J303.260 E_J297_J303.290 E_J297_J303.290.136 E_J303_J302 E_J303_J302.150 E_J303_J302.180 E_J302_J299 E_J299_J296 E_J299_J296.100 E_J299_J296.130 E_J299_J296.400 E_J299_J296.430 E_J296_J289 E_J296_J289.330 E_J296_J289.360 E_J289_J278 E_J278_J281 E_J278_J281.170 E_J278_J281.200 E_J278_J281.220 E_J278_J281.250 E_J281_J283 E_J281_J283.150 E_J281_J283.210 E_J281_J283.480 E_J281_J283.510 E_J281_J283.580 E_J281_J283.640 E_J283_J285 E_J285_J279 E_J285_J279.400 E_J285_J279.460 E_J279_J282 E_J282_J328 E_J282_J328.20 E_J282_J328.50 E_J282_J328.800 E_J282_J328.860 E_J282_J328.1100 E_J282_J328.1160 E_J282_J328.1160.46 E_J328_J354 E_J328_J354.440 E_J328_J354.470 E_J328_J354.600 E_J328_J354.660 E_J328_J354.660.167 E_J354_J355 E_J354_J355.100 E_J354_J355.130 E_J355_J358 E_J358_J367 E_J367_J376 E_J367_J376.170 E_J367_J376.200 E_J376_J378 E_J378_J380 E_J380_J383 E_J383_J417 E_J383_J417.150 E_J383_J417.180 E_J383_J417.700 E_J383_J417.760 E_J383_J417.760.296 E_J417_J423 E_J417_J423.280 E_J417_J423.310 E_J423_J409 E_J423_J409.120 E_J423_J409.150 E_J423_J409.520 E_J423_J409.550 E_J423_J409.550.68 E_J409_J434 E_J409_J434.200 E_J409_J434.230"/>
    <route id="!81342" state="0" edges="E_J395_J396.19 E_J396_J381"/>
    <route id="!81346" state="0" edges="E_J381_J363 E_J363_J347"/>
    <route id="!81350" state="0" edges="E_J347_J323 E_J323_J298"/>
    <route id="!81354" state="0" edges="E_J323_J298.180 E_J298_J297"/>
    <route id="!81356" state="0" edges="E_J298_J297.300 E_J297_J303"/>
    <route id="!81360" state="0" edges="E_J297_J303.290.136 E_J303_J302"/>
    <route id="!81362" state="0" edges="E_J296_J289.360 E_J289_J278"/>
    <route id="!81368" state="0" edges="E_J278_J281.250 E_J281_J283"/>
    <route id="!81376" state="0" edges="E_J283_J285 E_J285_J279"/>
    <route id="!81378" state="0" edges="E_J285_J279.460 E_J279_J282"/>
    <route id="!81380" state="0" edges="E_J282_J328.1160.46 E_J328_J354"/>
    <route id="!81381" state="0" edges="E_J282_J328.1160.46 E_J328_J354"/>
    <route id="!81390" state="0" edges="E_J383_J417.760.296 E_J417_J423"/>
    <route id="!81396" state="0" edges="E_J417_J423.310 E_J423_J409"/>
    <route id="!81404" state="0" edges="E_J423_J409.550.68 E_J409_J434"/>
    <route id="!81410" state="0" edges="E_J434_J427.110 E_J427_J406"/>
    <route id="!81414" state="0" edges="E_J427_J406 E_J406_J409"/>
    <route id="!81420" state="0" edges="E_J406_J409.430 E_J409_J423"/>
    <route id="!81426" state="0" edges="E_J409_J423.660 E_J423_J417"/>
    <route id="!81428" state="0" edges="E_J367_J354.340 E_J354_J328"/>
    <route id="!81436" state="0" edges="E_J279_J285.510 E_J285_J286"/>
    <route id="!81440" state="0" edges="E_J286_J281.640 E_J281_J278"/>
    <route id="!81444" state="0" edges="E_J278_J289 E_J289_J294"/>
    <route id="!81446" state="0" edges="E_J296_J299.50 E_J299_J302"/>
    <route id="!81452" state="0" edges="E_J302_J303 E_J303_J297"/>
    <route id="!81462" state="0" edges="E_J297_J321.130 E_J321_J362"/>
    <route id="!81470" state="0" edges="E_J321_J362.220 E_J362_J374"/>
    <route id="!81480" state="0" edges="E_J382_J393 E_J393_J395"/>
    <route id="!81484" state="0" edges="E_J147_J149.70.89 E_J149_J171"/>
    <route id="!81494" state="0" edges="E_J149_J171.230 E_J171_J177"/>
    <route id="!81498" state="0" edges="E_J214_J220.360 E_J220_J241"/>
    <route id="!81502" state="0" edges="E_J332_J365.270 E_J365_J394"/>
    <route id="!81506" state="0" edges="E_J365_J394.180 E_J394_J428"/>
    <route id="!81508" state="0" edges="E_J447_J473 E_J473_J503"/>
    <route id="!81510" state="0" edges="E_J473_J503.230 E_J503_J504"/>
    <route id="!81512" state="0" edges="E_J505_J506.130 E_J506_J507"/>
    <route id="!81514" state="0" edges="E_J506_J507 E_J507_J508"/>
    <route id="!81516" state="0" edges="E_J507_J508.180 E_J508_J510"/>
    <route id="!81518" state="0" edges="E_J508_J510.230 E_J510_J509"/>
    <route id="!81526" state="0" edges="E_J510_J509.230 E_J509_J511"/>
    <route id="!81532" state="0" edges="E_J514_J540.830 E_J540_J553"/>
    <route id="!81540" state="0" edges="E_J509_J510.130 E_J510_J508"/>
    <route id="!81548" state="0" edges="E_J510_J508.330 E_J508_J507"/>
    <route id="!81550" state="0" edges="E_J508_J507.180 E_J507_J506"/>
    <route id="!81552" state="0" edges="E_J507_J506 E_J506_J505"/>
    <route id="!81562" state="0" edges="E_J504_J503.630 E_J503_J473"/>
    <route id="!81564" state="0" edges="E_J447_J428 E_J428_J394"/>
    <route id="!81574" state="0" edges="E_J428_J394.330 E_J394_J365"/>
    <route id="!81580" state="0" edges="E_J394_J365.190 E_J365_J332"/>
    <route id="!81582" state="0" edges="E_J365_J332.320 E_J332_J303"/>
    <route id="!81592" state="0" edges="E_J332_J303.360 E_J303_J272"/>
    <route id="!81598" state="0" edges="E_J272_J241.530 E_J241_J220"/>
    <route id="!81606" state="0" edges="E_J210_J190 E_J190_J177"/>
    <route id="!81612" state="0" edges="E_J147_J144.50.79 E_J144_J135"/>
    <route id="!81622" state="0" edges="E_J135_J140.410.85 E_J140_J145"/>
    <route id="!81632" state="0" edges="E_J577_J567.230 E_J567_J566"/>
    <route id="!81636" state="0" edges="E_J567_J566.330.137 E_J566_J557"/>
    <route id="!81646" state="0" edges="E_J557_J535.180.221 E_J535_J501"/>
    <route id="!81648" state="0" edges="E_J535_J501.280.145 E_J501_J498"/>
    <route id="!81654" state="0" edges="E_J444_J439 E_J439_J413"/>
    <route id="!81658" state="0" edges="E_J439_J413.210 E_J413_J401"/>
    <route id="!81664" state="0" edges="E_J392_J394.60 E_J394_J365"/>
    <route id="!81670" state="0" edges="E_J171_J149.80 E_J149_J139"/>
    <route id="!81680" state="0" edges="E_J139_J132 E_J132_J133"/>
    <route id="!81684" state="0" edges="E_J132_J133.210 E_J133_J128"/>
    <route id="!81688" state="0" edges="E_J133_J128.210 E_J128_J129"/>
    <route id="!81694" state="0" edges="E_J129_J130 E_J130_J131"/>
    <route id="!81700" state="0" edges="E_J131_J134.290 E_J134_J136"/>
    <route id="!81702" state="0" edges="E_J138_J146.120 E_J146_J153"/>
    <route id="!81708" state="0" edges="E_J153_J156.292 E_J156_J158"/>
    <route id="!81712" state="0" edges="E_J156_J158.160 E_J158_J185"/>
    <route id="!81722" state="0" edges="E_J158_J185 E_J185_J209"/>
    <route id="!81730" state="0" edges="E_J6_J8.80 E_J8_J7"/>
    <route id="!81738" state="0" edges="E_J8_J7.540 E_J7_J4"/>
    <route id="!81746" state="0" edges="E_J7_J4.1190 E_J4_J5"/>
    <route id="!81756" state="0" edges="E_J5_J10.320 E_J10_J15"/>
    <route id="!81762" state="0" edges="E_J34_J32.130 E_J32_J44"/>
    <route id="!81772" state="0" edges="E_J32_J44.230 E_J44_J58"/>
    <route id="!81776" state="0" edges="E_J303_J297.290.136 E_J297_J298"/>
    <route id="!81782" state="0" edges="E_J297_J298 E_J298_J301"/>
    <route id="!81792" state="0" edges="E_J298_J301 E_J301_J361"/>
    <route id="!81802" state="0" edges="E_J301_J361.660 E_J361_J397"/>
    <route id="!81812" state="0" edges="E_J361_J397.280 E_J397_J411"/>
    <route id="!81814" state="0" edges="E_J411_J432 E_J432_J474"/>
    <route id="!81822" state="0" edges="E_J530_J532.190 E_J532_J533"/>
    <route id="!81826" state="0" edges="E_J532_J533.230 E_J533_J552"/>
    <route id="!81830" state="0" edges="E_J583_J589.200.11 E_J589_J590"/>
    <route id="!81832" state="0" edges="E_J592_J593.230 E_J593_J598"/>
    <route id="!81840" state="0" edges="E_J590_J589.80 E_J589_J583"/>
    <route id="!81850" state="0" edges="E_J552_J533 E_J533_J532"/>
    <route id="!81858" state="0" edges="E_J490_J474 E_J474_J432"/>
    <route id="!81868" state="0" edges="E_J474_J432.360 E_J432_J411"/>
    <route id="!81874" state="0" edges="E_J411_J397 E_J397_J361"/>
    <route id="!81880" state="0" edges="E_J397_J361.180 E_J361_J301"/>
    <route id="!81886" state="0" edges="E_J361_J301.750 E_J301_J298"/>
    <route id="!81894" state="0" edges="E_J301_J298 E_J298_J297"/>
    <route id="!81898" state="0" edges="E_J297_J303.290.136 E_J303_J272"/>
    <route id="!81908" state="0" edges="E_J135_J140.410.85 E_J140_J122"/>
    <route id="!81910" state="0" edges="E_J23_J24.80 E_J24_J18"/>
    <route id="!81918" state="0" edges="E_J302_J303 E_J303_J272"/>
    <route id="!81924" state="0" edges="E_J272_J241.530 E_J241_J244"/>
    <route id="!81934" state="0" edges="E_J241_J244.470 E_J244_J232"/>
    <route id="!81940" state="0" edges="E_J244_J232.210.145 E_J232_J223"/>
    <route id="!81946" state="0" edges="E_J232_J223.220 E_J223_J228"/>
    <route id="!81952" state="0" edges="E_J223_J228.210.256 E_J228_J206"/>
    <route id="!81960" state="0" edges="E_J206_J162.406 E_J162_J138"/>
    <route id="!81966" state="0" edges="E_J106_J38.1430 E_J38_J37"/>
    <route id="!81968" state="0" edges="E_J38_J37.230 E_J37_J89"/>
    <route id="!81976" state="0" edges="E_J84_J80.180.70 E_J80_J78"/>
    <route id="!81982" state="0" edges="E_J74_J73.220 E_J73_J71"/>
    <route id="!81986" state="0" edges="E_J227_J258.130.157 E_J258_J269"/>
    <route id="!81990" state="0" edges="E_J269_J290.133 E_J290_J292"/>
    <route id="!81998" state="0" edges="E_J292_J277 E_J277_J308"/>
    <route id="!82002" state="0" edges="E_J277_J308.150 E_J308_J305"/>
    <route id="!82006" state="0" edges="E_J305_J306 E_J306_J307"/>
    <route id="!82012" state="0" edges="E_J306_J307.180 E_J307_J273"/>
    <route id="!82016" state="0" edges="E_J307_J273.190 E_J273_J270"/>
    <route id="!82018" state="0" edges="E_J273_J270.150 E_J270_J268"/>
    <route id="!82024" state="0" edges="E_J270_J268.270 E_J268_J267"/>
    <route id="!82032" state="0" edges="E_J268_J267.240 E_J267_J280"/>
    <route id="!82034" state="0" edges="E_J280_J309.50 E_J309_J300"/>
    <route id="!82042" state="0" edges="E_J319_J354.230 E_J354_J328"/>
    <route id="!82052" state="0" edges="E_J278_J289 E_J289_J338"/>
    <route id="!82062" state="0" edges="E_J335_J318.150 E_J318_J345"/>
    <route id="!82066" state="0" edges="E_J385_J422 E_J422_J424"/>
    <route id="!82068" state="0" edges="E_J447_J473 E_J473_J475"/>
    <route id="!82074" state="0" edges="E_J473_J475.530 E_J475_J476"/>
    <route id="!82076" state="0" edges="E_J476_J474.90 E_J474_J477"/>
    <route id="!82082" state="0" edges="E_J474_J477.180 E_J477_J465"/>
    <route id="!82086" state="0" edges="E_J465_J454.80 E_J454_J455"/>
    <route id="!82092" state="0" edges="E_J454_J455 E_J455_J456"/>
    <route id="!82094" state="0" edges="E_J456_J457.50 E_J457_J458"/>
    <route id="!82096" state="0" edges="E_J458_J459.90 E_J459_J460"/>
    <route id="!82098" state="0" edges="E_J74_J78.230.85 E_J78_J80"/>
    <route id="!82102" state="0" edges="E_J78_J80.260.122 E_J80_J84"/>
    <route id="!82112" state="0" edges="E_J48_J37 E_J37_J38"/>
    <route id="!82116" state="0" edges="E_J37_J38.430 E_J38_J106"/>
    <route id="!82126" state="0" edges="E_J138_J162 E_J162_J206"/>
    <route id="!82136" state="0" edges="E_J206_J228.130.201 E_J228_J223"/>
    <route id="!82138" state="0" edges="E_J223_J232.120.106 E_J232_J244"/>
    <route id="!82146" state="0" edges="E_J232_J244.410 E_J244_J241"/>
    <route id="!82152" state="0" edges="E_J211_J183.130 E_J183_J173"/>
    <route id="!82154" state="0" edges="E_J139_J149 E_J149_J171"/>
    <route id="!82162" state="0" edges="E_J365_J394.180 E_J394_J392"/>
    <route id="!82166" state="0" edges="E_J385_J401.1460 E_J401_J413"/>
    <route id="!82170" state="0" edges="E_J401_J413.160 E_J413_J439"/>
    <route id="!82172" state="0" edges="E_J413_J439.180 E_J439_J444"/>
    <route id="!82180" state="0" edges="E_J557_J566.170.47 E_J566_J567"/>
    <route id="!82184" state="0" edges="E_J566_J567.330.136 E_J567_J577"/>
    <route id="!82186" state="0" edges="E_J433_J435.490 E_J435_J461"/>
    <route id="!82192" state="0" edges="E_J435_J461.380 E_J461_J460"/>
    <route id="!82198" state="0" edges="E_J456_J455 E_J455_J454"/>
    <route id="!82204" state="0" edges="E_J465_J477 E_J477_J474"/>
    <route id="!82208" state="0" edges="E_J476_J475.230 E_J475_J473"/>
    <route id="!82212" state="0" edges="E_J447_J428 E_J428_J426"/>
    <route id="!82216" state="0" edges="E_J424_J422 E_J422_J385"/>
    <route id="!82226" state="0" edges="E_J335_J338.490 E_J338_J289"/>
    <route id="!82234" state="0" edges="E_J338_J289.680 E_J289_J278"/>
    <route id="!82244" state="0" edges="E_J355_J309.330 E_J309_J280"/>
    <route id="!82252" state="0" edges="E_J280_J267.110 E_J267_J268"/>
    <route id="!82258" state="0" edges="E_J267_J268.220 E_J268_J270"/>
    <route id="!82262" state="0" edges="E_J268_J270.350 E_J270_J273"/>
    <route id="!82268" state="0" edges="E_J270_J273.140 E_J273_J307"/>
    <route id="!82272" state="0" edges="E_J307_J306.140 E_J306_J305"/>
    <route id="!82276" state="0" edges="E_J305_J308.230 E_J308_J277"/>
    <route id="!82286" state="0" edges="E_J308_J277.210 E_J277_J292"/>
    <route id="!82294" state="0" edges="E_J292_J290.430 E_J290_J269"/>
    <route id="!82302" state="0" edges="E_J269_J258.160 E_J258_J227"/>
    <route id="!82306" state="0" edges="E_J258_J227.330 E_J227_J208"/>
    <delay number="0" begin="173" end="0" depart="0.00" time="0.00"/>
    <vType id="Bus" vClass="bus" personCapacity="50" boardingDuration="4.00"/>
    <vType id="Passenger" vClass="pedestrian"/>
    <vType id="Social_Vehicle" vClass="passenger"/>
    <vType id="Social_Vehicle_add" vClass="passenger"/>
    <vType id="Transfer_Passenger" vClass="pedestrian"/>
    <vehicle id="234" type="Social_Vehicle" depart="0.26" departLane="free" departSpeed="max" fromTaz="137" toTaz="142" route="!234" distance="0 0" speedFactor="1.0600" state="196630 9223372036854774807 0 -1.00 0 0.00 0 0 0" pos="0.00 0.00 0.00" speed="0.00 0.00" angle="90.00" posLat="0.00" waitingTime="100000 0">
        <device id="tripinfo_234"/>
    </vehicle>
    <vehicle id="81342" type="Social_Vehicle_add" depart="0.00" departLane="free" departSpeed="max" fromTaz="80" toTaz="67" route="!81342" distance="0 0" speedFactor="0.9383" state="196630 9223372036854774807 0 -1.00 0 0.00 0 0 0" pos="0.00 0.00 0.00" speed="0.00 0.00" angle="90.00" posLat="0.00" waitingTime="100000 0">
        <device id="tripinfo_81342"/>
    </vehicle>
    <vehicle id="81346" type="Social_Vehicle_add" depart="0.00" departLane="free" departSpeed="max" fromTaz="67" toTaz="66" route="!81346" distance="0 0" speedFactor="1.0104" state="196630 9223372036854774807 0 -1.00 0 0.00 0 0 0" pos="0.00 0.00 0.00" speed="0.00 0.00" angle="90.00" posLat="0.00" waitingTime="100000 0">
        <device id="tripinfo_81346"/>
    </vehicle>
    <vehicle id="81350" type="Social_Vehicle_add" depart="0.00" departLane="free" departSpeed="max" fromTaz="66" toTaz="66" route="!81350" distance="0 0" speedFactor="1.0827" state="196630 9223372036854774807 0 -1.00 0 0.00 0 0 0" pos="0.00 0.00 0.00" speed="0.00 0.00" angle="90.00" posLat="0.00" waitingTime="100000 0">
        <device id="tripinfo_81350"/>
    </vehicle>
    <vehicle id="81354" type="Social_Vehicle_add" depart="0.00" departLane="free" departSpeed="max" fromTaz="66" toTaz="70" route="!81354" distance="0 0" speedFactor="1.0303" state="196630 9223372036854774807 0 -1.00 0 0.00 0 0 0" pos="0.00 0.00 0.00" speed="0.00 0.00" angle="90.00" posLat="0.00" waitingTime="100000 0">
        <device id="tripinfo_81354"/>
    </vehicle>
    <vehicle id="81356" type="Social_Vehicle_add" depart="0.00" departLane="free" departSpeed="max" fromTaz="70" toTaz="76" route="!81356" distance="0 0" speedFactor="0.8310" state="196630 9223372036854774807 0 -1.00 0 0.00 0 0 0" pos="0.00 0.00 0.00" speed="0.00 0.00" angle="90.00" posLat="0.00" waitingTime="100000 0">
        <device id="tripinfo_81356"/>
    </vehicle>
    <vehicle id="81360" type="Social_Vehicle_add" depart="0.00" departLane="free" departSpeed="max" fromTaz="76" toTaz="84" route="!81360" distance="0 0" speedFactor="1.0458" state="196630 9223372036854774807 0 -1.00 0 0.00 0 0 0" pos="0.00 0.00 0.00" speed="0.00 0.00" angle="90.00" posLat="0.00" waitingTime="100000 0">
        <device id="tripinfo_81360"/>
    </vehicle>
    <vehicle id="81362" type="Social_Vehicle_add" depart="0.00" departLane="free" departSpeed="max" fromTaz="90" toTaz="97" route="!81362" distance="0 0" speedFactor="0.8860" state="196630 9223372036854774807 0 -1.00 0 0.00 0 0 0" pos="0.00 0.00 0.00" speed="0.00 0.00" angle="90.00" posLat="0.00" waitingTime="100000 0">
        <device id="tripinfo_81362"/>
    </vehicle>
    <vehicle id="81368" type="Social_Vehicle_add" depart="0.00" departLane="free" departSpeed="max" fromTaz="97" toTaz="104" route="!81368" distance="0 0" speedFactor="0.9379" state="196630 9223372036854774807 0 -1.00 0 0.00 0 0 0" pos="0.00 0.00 0.00" speed="0.00 0.00" angle="90.00" posLat="0.00" waitingTime="100000 0">
        <device id="tripinfo_81368"/>
    </vehicle>
    <vehicle id="81376" type="Social_Vehicle_add" depart="0.00" departLane="free" departSpeed="max" fromTaz="104" toTaz="108" route="!81376" distance="0 0" speedFactor="0.8569" state="196630 9223372036854774807 0 -1.00 0 0.00 0 0 0" pos="0.00 0.00 0.00" speed="0.00 0.00" angle="90.00" posLat="0.00" waitingTime="100000 0">
        <device id="tripinfo_81376"/>
    </vehicle>
    <vehicle id="81378" type="Social_Vehicle_add" depart="0.00" departLane="free" departSpeed="max" fromTaz="108" toTaz="152" route="!81378" distance="0 0" speedFactor="1.0907" state="196630 9223372036854774807 0 -1.00 0 0.00 0 0 0" pos="0.00 0.00 0.00" speed="0.00 0.00" angle="90.00" posLat="0.00" waitingTime="100000 0">
        <device id="tripinfo_81378"/>
    </vehicle>
    <vehicle id="81380" type="Social_Vehicle_add" depart="0.00" departLane="free" departSpeed="max" fromTaz="152" toTaz="152" route="!81380" distance="0 0" speedFactor="1.0263" state="196630 9223372036854774807 0 -1.00 0 0.00 0 0 0" pos="0.00 0.00 0.00" speed="0.00 0.00" angle="90.00" posLat="0.00" waitingTime="100000 0">
        <device id="tripinfo_81380"/>
    </vehicle>
    <vehicle id="81390" type="Social_Vehicle_add" depart="0.00" departLane="free" departSpeed="max" fromTaz="185" toTaz="191" route="!81390" distance="0 0" speedFactor="1.0471" state="196630 9223372036854774807 0 -1.00 0 0.00 0 0 0" pos="0.00 0.00 0.00" speed="0.00 0.00" angle="90.00" posLat="0.00" waitingTime="100000 0">
        <device id="tripinfo_81390"/>
    </vehicle>
    <vehicle id="81396" type="Social_Vehicle_add" depart="0.00" departLane="free" departSpeed="max" fromTaz="191" toTaz="195" route="!81396" distance="0 0" speedFactor="1.1229" state="196630 9223372036854774807 0 -1.00 0 0.00 0 0 0" pos="0.00 0.00 0.00" speed="0.00 0.00" angle="90.00" posLat="0.00" waitingTime="100000 0">
        <device id="tripinfo_81396"/>
    </vehicle>
    <vehicle id="81404" type="Social_Vehicle_add" depart="0.00" departLane="free" departSpeed="max" fromTaz="195" toTaz="206" route="!81404" distance="0 0" speedFactor="0.9912" state="196630 9223372036854774807 0 -1.00 0 0.00 0 0 0" pos="0.00 0.00 0.00" speed="0.00 0.00" angle="90.00" posLat="0.00" waitingTime="100000 0">
        <device id="tripinfo_81404"/>
    </vehicle>
    <vehicle id="81410" type="Social_Vehicle_add" depart="0.00" departLane="free" departSpeed="max" fromTaz="206" toTaz="206" route="!81410" distance="0 0" speedFactor="0.9268" state="196630 9223372036854774807 0 -1.00 0 0.00 0 0 0" pos="0.00 0.00 0.00" speed="0.00 0.00" angle="90.00" posLat="0.00" waitingTime="100000 0">
        <device id="tripinfo_81410"/>
    </vehicle>
    <vehicle id="81414" type="Social_Vehicle_add" depart="0.00" departLane="free" departSpeed="max" fromTaz="206" toTaz="206" route="!81414" distance="0 0" speedFactor="0.8784" state="196630 9223372036854774807 0 -1.00 0 0.00 0 0 0" pos="0.00 0.00 0.00" speed="0.00 0.00" angle="90.00" posLat="0.00" waitingTime="100000 0">
        <device id="tripinfo_81414"/>
    </vehicle>
    <vehicle id="81420" type="Social_Vehicle_add" depart="0.00" departLane="free" departSpeed="max" fromTaz="206" toTaz="196" route="!81420" distance="0 0" speedFactor="0.9414" state="196630 9223372036854774807 0 -1.00 0 0.00 0 0 0" pos="0.00 0.00 0.00" speed="0.00 0.00" angle="90.00" posLat="0.00" waitingTime="100000 0">
        <device id="tripinfo_81420"/>
    </vehicle>
    <vehicle id="81426" type="Social_Vehicle_add" depart="0.00" departLane="free" departSpeed="max" fromTaz="196" toTaz="196" route="!81426" distance="0 0" speedFactor="0.9362" state="196630 9223372036854774807 0 -1.00 0 0.00 0 0 0" pos="0.00 0.00 0.00" speed="0.00 0.00" angle="90.00" posLat="0.00" waitingTime="100000 0">
        <device id="tripinfo_81426"/>
    </vehicle>
    <vehicle id="81428" type="Social_Vehicle_add" depart="0.00" departLane="free" departSpeed="max" fromTaz="186" toTaz="164" route="!81428" distance="0 0" speedFactor="1.1582" state="196630 9223372036854774807 0 -1.00 0 0.00 0 0 0" pos="0.00 0.00 0.00" speed="0.00 0.00" angle="90.00" posLat="0.00" waitingTime="100000 0">
        <device id="tripinfo_81428"/>
    </vehicle>